*SPEF "IEEE 1481-1998"
*DESIGN "FIR_Filter"
*DATE "Tue Nov 16 14:15:18 2021"
*VENDOR "Cadence Design Systems, Inc."
*PROGRAM "Innovus"
*VERSION "17.11-s080_1"
*DESIGN_FLOW "COUPLING C" "PIN_CAP NONE" "NAME_SCOPE LOCAL"
*DIVIDER /
*DELIMITER :
*BUS_DELIMITER []
*T_UNIT 1 NS
*C_UNIT 1 PF
*R_UNIT 1 OHM
*L_UNIT 1 HENRY

// MMMC spef file for corner 'my_rc'

*NAME_MAP

*1 FE_OFN6_RST_n
*2 FE_OFN5_RST_n
*3 FE_OFN4_CTRL_IN_DP
*4 FE_OFN3_CTRL_IN_DP
*5 FE_OFN2_CTRL_IN_DP
*6 FE_OFN1_CTRL_IN_DP
*7 FE_OFN0_CTRL_IN_DP
*8 DIN[11]
*9 DIN[10]
*10 DIN[9]
*11 DIN[8]
*12 DIN[7]
*13 DIN[6]
*14 DIN[5]
*15 DIN[4]
*16 DIN[3]
*17 DIN[2]
*18 DIN[1]
*19 DIN[0]
*20 B0[11]
*21 B0[10]
*22 B0[9]
*23 B0[8]
*24 B0[7]
*25 B0[6]
*26 B0[5]
*27 B0[4]
*28 B0[3]
*29 B0[2]
*30 B0[1]
*31 B0[0]
*32 B1[11]
*33 B1[10]
*34 B1[9]
*35 B1[8]
*36 B1[7]
*37 B1[6]
*38 B1[5]
*39 B1[4]
*40 B1[3]
*41 B1[2]
*42 B1[1]
*43 B1[0]
*44 B2[11]
*45 B2[10]
*46 B2[9]
*47 B2[8]
*48 B2[7]
*49 B2[6]
*50 B2[5]
*51 B2[4]
*52 B2[3]
*53 B2[2]
*54 B2[1]
*55 B2[0]
*56 B3[11]
*57 B3[10]
*58 B3[9]
*59 B3[8]
*60 B3[7]
*61 B3[6]
*62 B3[5]
*63 B3[4]
*64 B3[3]
*65 B3[2]
*66 B3[1]
*67 B3[0]
*68 B4[11]
*69 B4[10]
*70 B4[9]
*71 B4[8]
*72 B4[7]
*73 B4[6]
*74 B4[5]
*75 B4[4]
*76 B4[3]
*77 B4[2]
*78 B4[1]
*79 B4[0]
*80 B5[11]
*81 B5[10]
*82 B5[9]
*83 B5[8]
*84 B5[7]
*85 B5[6]
*86 B5[5]
*87 B5[4]
*88 B5[3]
*89 B5[2]
*90 B5[1]
*91 B5[0]
*92 B6[11]
*93 B6[10]
*94 B6[9]
*95 B6[8]
*96 B6[7]
*97 B6[6]
*98 B6[5]
*99 B6[4]
*100 B6[3]
*101 B6[2]
*102 B6[1]
*103 B6[0]
*104 B7[11]
*105 B7[10]
*106 B7[9]
*107 B7[8]
*108 B7[7]
*109 B7[6]
*110 B7[5]
*111 B7[4]
*112 B7[3]
*113 B7[2]
*114 B7[1]
*115 B7[0]
*116 B8[11]
*117 B8[10]
*118 B8[9]
*119 B8[8]
*120 B8[7]
*121 B8[6]
*122 B8[5]
*123 B8[4]
*124 B8[3]
*125 B8[2]
*126 B8[1]
*127 B8[0]
*128 DOUT[11]
*129 DOUT[10]
*130 DOUT[9]
*131 DOUT[8]
*132 DOUT[7]
*133 DOUT[6]
*134 DOUT[5]
*135 DOUT[4]
*136 DOUT[3]
*137 DOUT[2]
*138 DOUT[1]
*139 DOUT[0]
*140 CLK
*141 RST_n
*142 VIN
*143 VOUT
*144 CTRL_IN_DP
*145 CU_n1
*146 CU_N18
*147 CU_N17
*148 CU_STATE_0_
*149 DP_mult_0__11_
*150 DP_mult_0__12_
*151 DP_mult_0__13_
*152 DP_mult_0__14_
*153 DP_mult_0__15_
*154 DP_mult_0__16_
*155 DP_mult_0__17_
*156 DP_mult_0__18_
*157 DP_mult_0__19_
*158 DP_mult_0__20_
*159 DP_mult_0__21_
*160 DP_mult_0__22_
*161 DP_mult_1__11_
*162 DP_mult_1__12_
*163 DP_mult_1__13_
*164 DP_mult_1__14_
*165 DP_mult_1__15_
*166 DP_mult_1__16_
*167 DP_mult_1__17_
*168 DP_mult_1__18_
*169 DP_mult_1__19_
*170 DP_mult_1__20_
*171 DP_mult_1__21_
*172 DP_mult_1__22_
*173 DP_mult_2__11_
*174 DP_mult_2__12_
*175 DP_mult_2__13_
*176 DP_mult_2__14_
*177 DP_mult_2__15_
*178 DP_mult_2__16_
*179 DP_mult_2__17_
*180 DP_mult_2__18_
*181 DP_mult_2__19_
*182 DP_mult_2__20_
*183 DP_mult_2__21_
*184 DP_mult_2__22_
*185 DP_mult_3__11_
*186 DP_mult_3__12_
*187 DP_mult_3__13_
*188 DP_mult_3__14_
*189 DP_mult_3__15_
*190 DP_mult_3__16_
*191 DP_mult_3__17_
*192 DP_mult_3__18_
*193 DP_mult_3__19_
*194 DP_mult_3__20_
*195 DP_mult_3__21_
*196 DP_mult_3__22_
*197 DP_mult_4__11_
*198 DP_mult_4__12_
*199 DP_mult_4__13_
*200 DP_mult_4__14_
*201 DP_mult_4__15_
*202 DP_mult_4__16_
*203 DP_mult_4__17_
*204 DP_mult_4__18_
*205 DP_mult_4__19_
*206 DP_mult_4__20_
*207 DP_mult_4__21_
*208 DP_mult_4__22_
*209 DP_mult_5__11_
*210 DP_mult_5__12_
*211 DP_mult_5__13_
*212 DP_mult_5__14_
*213 DP_mult_5__15_
*214 DP_mult_5__16_
*215 DP_mult_5__17_
*216 DP_mult_5__18_
*217 DP_mult_5__19_
*218 DP_mult_5__20_
*219 DP_mult_5__21_
*220 DP_mult_5__22_
*221 DP_mult_6__11_
*222 DP_mult_6__12_
*223 DP_mult_6__13_
*224 DP_mult_6__14_
*225 DP_mult_6__15_
*226 DP_mult_6__16_
*227 DP_mult_6__17_
*228 DP_mult_6__18_
*229 DP_mult_6__19_
*230 DP_mult_6__20_
*231 DP_mult_6__21_
*232 DP_mult_6__22_
*233 DP_mult_7__11_
*234 DP_mult_7__12_
*235 DP_mult_7__13_
*236 DP_mult_7__14_
*237 DP_mult_7__15_
*238 DP_mult_7__16_
*239 DP_mult_7__17_
*240 DP_mult_7__18_
*241 DP_mult_7__19_
*242 DP_mult_7__20_
*243 DP_mult_7__21_
*244 DP_mult_7__22_
*245 DP_mult_8__11_
*246 DP_mult_8__12_
*247 DP_mult_8__13_
*248 DP_mult_8__14_
*249 DP_mult_8__15_
*250 DP_mult_8__16_
*251 DP_mult_8__17_
*252 DP_mult_8__18_
*253 DP_mult_8__19_
*254 DP_mult_8__20_
*255 DP_mult_8__21_
*256 DP_mult_8__22_
*257 DP_sum_0__0_
*258 DP_sum_0__10_
*259 DP_sum_0__11_
*260 DP_sum_0__1_
*261 DP_sum_0__2_
*262 DP_sum_0__3_
*263 DP_sum_0__4_
*264 DP_sum_0__5_
*265 DP_sum_0__6_
*266 DP_sum_0__7_
*267 DP_sum_0__8_
*268 DP_sum_0__9_
*269 DP_sum_1__0_
*270 DP_sum_1__10_
*271 DP_sum_1__11_
*272 DP_sum_1__1_
*273 DP_sum_1__2_
*274 DP_sum_1__3_
*275 DP_sum_1__4_
*276 DP_sum_1__5_
*277 DP_sum_1__6_
*278 DP_sum_1__7_
*279 DP_sum_1__8_
*280 DP_sum_1__9_
*281 DP_sum_2__0_
*282 DP_sum_2__10_
*283 DP_sum_2__11_
*284 DP_sum_2__1_
*285 DP_sum_2__2_
*286 DP_sum_2__3_
*287 DP_sum_2__4_
*288 DP_sum_2__5_
*289 DP_sum_2__6_
*290 DP_sum_2__7_
*291 DP_sum_2__8_
*292 DP_sum_2__9_
*293 DP_sum_3__0_
*294 DP_sum_3__10_
*295 DP_sum_3__11_
*296 DP_sum_3__1_
*297 DP_sum_3__2_
*298 DP_sum_3__3_
*299 DP_sum_3__4_
*300 DP_sum_3__5_
*301 DP_sum_3__6_
*302 DP_sum_3__7_
*303 DP_sum_3__8_
*304 DP_sum_3__9_
*305 DP_sum_4__0_
*306 DP_sum_4__10_
*307 DP_sum_4__11_
*308 DP_sum_4__1_
*309 DP_sum_4__2_
*310 DP_sum_4__3_
*311 DP_sum_4__4_
*312 DP_sum_4__5_
*313 DP_sum_4__6_
*314 DP_sum_4__7_
*315 DP_sum_4__8_
*316 DP_sum_4__9_
*317 DP_sum_5__0_
*318 DP_sum_5__10_
*319 DP_sum_5__11_
*320 DP_sum_5__1_
*321 DP_sum_5__2_
*322 DP_sum_5__3_
*323 DP_sum_5__4_
*324 DP_sum_5__5_
*325 DP_sum_5__6_
*326 DP_sum_5__7_
*327 DP_sum_5__8_
*328 DP_sum_5__9_
*329 DP_sum_6__0_
*330 DP_sum_6__10_
*331 DP_sum_6__11_
*332 DP_sum_6__1_
*333 DP_sum_6__2_
*334 DP_sum_6__3_
*335 DP_sum_6__4_
*336 DP_sum_6__5_
*337 DP_sum_6__6_
*338 DP_sum_6__7_
*339 DP_sum_6__8_
*340 DP_sum_6__9_
*341 DP_input_register_n36
*342 DP_input_register_n35
*343 DP_input_register_n34
*344 DP_input_register_n33
*345 DP_input_register_n32
*346 DP_input_register_n31
*347 DP_input_register_n30
*348 DP_input_register_n29
*349 DP_input_register_n28
*350 DP_input_register_n27
*351 DP_input_register_n26
*352 DP_input_register_n25
*353 DP_input_register_n24
*354 DP_input_register_n23
*355 DP_input_register_n22
*356 DP_input_register_n21
*357 DP_input_register_n20
*358 DP_input_register_n19
*359 DP_input_register_n18
*360 DP_input_register_n17
*361 DP_input_register_n16
*362 DP_input_register_n15
*363 DP_input_register_n14
*364 DP_input_register_n13
*365 DP_input_register_n12
*366 DP_input_register_n11
*367 DP_input_register_n10
*368 DP_input_register_n9
*369 DP_input_register_n8
*370 DP_input_register_n7
*371 DP_input_register_n6
*372 DP_input_register_n5
*373 DP_input_register_n4
*374 DP_input_register_n3
*375 DP_input_register_n2
*376 DP_input_register_n1
*377 DP_i_register_1_n75
*378 DP_i_register_1_n74
*379 DP_i_register_1_n73
*380 DP_i_register_1_n72
*381 DP_i_register_1_n71
*382 DP_i_register_1_n70
*383 DP_i_register_1_n69
*384 DP_i_register_1_n68
*385 DP_i_register_1_n67
*386 DP_i_register_1_n66
*387 DP_i_register_1_n65
*388 DP_i_register_1_n64
*389 DP_i_register_1_n63
*390 DP_i_register_1_n62
*391 DP_i_register_1_n61
*392 DP_i_register_1_n60
*393 DP_i_register_1_n59
*394 DP_i_register_1_n58
*395 DP_i_register_1_n57
*396 DP_i_register_1_n56
*397 DP_i_register_1_n55
*398 DP_i_register_1_n54
*399 DP_i_register_1_n53
*400 DP_i_register_1_n52
*401 DP_i_register_1_n51
*402 DP_i_register_1_n50
*403 DP_i_register_1_n49
*404 DP_i_register_1_n48
*405 DP_i_register_1_n47
*406 DP_i_register_1_n46
*407 DP_i_register_1_n45
*408 DP_i_register_1_n44
*409 DP_i_register_1_n43
*410 DP_i_register_1_n42
*411 DP_i_register_1_n41
*412 DP_i_register_1_n40
*413 DP_i_register_2_n75
*414 DP_i_register_2_n74
*415 DP_i_register_2_n73
*416 DP_i_register_2_n72
*417 DP_i_register_2_n71
*418 DP_i_register_2_n70
*419 DP_i_register_2_n69
*420 DP_i_register_2_n68
*421 DP_i_register_2_n67
*422 DP_i_register_2_n66
*423 DP_i_register_2_n65
*424 DP_i_register_2_n64
*425 DP_i_register_2_n63
*426 DP_i_register_2_n62
*427 DP_i_register_2_n61
*428 DP_i_register_2_n60
*429 DP_i_register_2_n59
*430 DP_i_register_2_n58
*431 DP_i_register_2_n57
*432 DP_i_register_2_n56
*433 DP_i_register_2_n55
*434 DP_i_register_2_n54
*435 DP_i_register_2_n53
*436 DP_i_register_2_n52
*437 DP_i_register_2_n51
*438 DP_i_register_2_n50
*439 DP_i_register_2_n49
*440 DP_i_register_2_n48
*441 DP_i_register_2_n47
*442 DP_i_register_2_n46
*443 DP_i_register_2_n45
*444 DP_i_register_2_n44
*445 DP_i_register_2_n43
*446 DP_i_register_2_n42
*447 DP_i_register_2_n41
*448 DP_i_register_2_n40
*449 DP_i_register_3_n75
*450 DP_i_register_3_n74
*451 DP_i_register_3_n73
*452 DP_i_register_3_n72
*453 DP_i_register_3_n71
*454 DP_i_register_3_n70
*455 DP_i_register_3_n69
*456 DP_i_register_3_n68
*457 DP_i_register_3_n67
*458 DP_i_register_3_n66
*459 DP_i_register_3_n65
*460 DP_i_register_3_n64
*461 DP_i_register_3_n63
*462 DP_i_register_3_n62
*463 DP_i_register_3_n61
*464 DP_i_register_3_n60
*465 DP_i_register_3_n59
*466 DP_i_register_3_n58
*467 DP_i_register_3_n57
*468 DP_i_register_3_n56
*469 DP_i_register_3_n55
*470 DP_i_register_3_n54
*471 DP_i_register_3_n53
*472 DP_i_register_3_n52
*473 DP_i_register_3_n51
*474 DP_i_register_3_n50
*475 DP_i_register_3_n49
*476 DP_i_register_3_n48
*477 DP_i_register_3_n47
*478 DP_i_register_3_n46
*479 DP_i_register_3_n45
*480 DP_i_register_3_n44
*481 DP_i_register_3_n43
*482 DP_i_register_3_n42
*483 DP_i_register_3_n41
*484 DP_i_register_3_n40
*485 DP_i_register_4_n75
*486 DP_i_register_4_n74
*487 DP_i_register_4_n73
*488 DP_i_register_4_n72
*489 DP_i_register_4_n71
*490 DP_i_register_4_n70
*491 DP_i_register_4_n69
*492 DP_i_register_4_n68
*493 DP_i_register_4_n67
*494 DP_i_register_4_n66
*495 DP_i_register_4_n65
*496 DP_i_register_4_n64
*497 DP_i_register_4_n63
*498 DP_i_register_4_n62
*499 DP_i_register_4_n61
*500 DP_i_register_4_n60
*501 DP_i_register_4_n59
*502 DP_i_register_4_n58
*503 DP_i_register_4_n57
*504 DP_i_register_4_n56
*505 DP_i_register_4_n55
*506 DP_i_register_4_n54
*507 DP_i_register_4_n53
*508 DP_i_register_4_n52
*509 DP_i_register_4_n51
*510 DP_i_register_4_n50
*511 DP_i_register_4_n49
*512 DP_i_register_4_n48
*513 DP_i_register_4_n47
*514 DP_i_register_4_n46
*515 DP_i_register_4_n45
*516 DP_i_register_4_n44
*517 DP_i_register_4_n43
*518 DP_i_register_4_n42
*519 DP_i_register_4_n41
*520 DP_i_register_4_n40
*521 DP_i_register_5_n75
*522 DP_i_register_5_n74
*523 DP_i_register_5_n73
*524 DP_i_register_5_n72
*525 DP_i_register_5_n71
*526 DP_i_register_5_n70
*527 DP_i_register_5_n69
*528 DP_i_register_5_n68
*529 DP_i_register_5_n67
*530 DP_i_register_5_n66
*531 DP_i_register_5_n65
*532 DP_i_register_5_n64
*533 DP_i_register_5_n63
*534 DP_i_register_5_n62
*535 DP_i_register_5_n61
*536 DP_i_register_5_n60
*537 DP_i_register_5_n59
*538 DP_i_register_5_n58
*539 DP_i_register_5_n57
*540 DP_i_register_5_n56
*541 DP_i_register_5_n55
*542 DP_i_register_5_n54
*543 DP_i_register_5_n53
*544 DP_i_register_5_n52
*545 DP_i_register_5_n51
*546 DP_i_register_5_n50
*547 DP_i_register_5_n49
*548 DP_i_register_5_n48
*549 DP_i_register_5_n47
*550 DP_i_register_5_n46
*551 DP_i_register_5_n45
*552 DP_i_register_5_n44
*553 DP_i_register_5_n43
*554 DP_i_register_5_n42
*555 DP_i_register_5_n41
*556 DP_i_register_5_n40
*557 DP_i_register_6_n75
*558 DP_i_register_6_n74
*559 DP_i_register_6_n73
*560 DP_i_register_6_n72
*561 DP_i_register_6_n71
*562 DP_i_register_6_n70
*563 DP_i_register_6_n69
*564 DP_i_register_6_n68
*565 DP_i_register_6_n67
*566 DP_i_register_6_n66
*567 DP_i_register_6_n65
*568 DP_i_register_6_n64
*569 DP_i_register_6_n63
*570 DP_i_register_6_n62
*571 DP_i_register_6_n61
*572 DP_i_register_6_n60
*573 DP_i_register_6_n59
*574 DP_i_register_6_n58
*575 DP_i_register_6_n57
*576 DP_i_register_6_n56
*577 DP_i_register_6_n55
*578 DP_i_register_6_n54
*579 DP_i_register_6_n53
*580 DP_i_register_6_n52
*581 DP_i_register_6_n51
*582 DP_i_register_6_n50
*583 DP_i_register_6_n49
*584 DP_i_register_6_n48
*585 DP_i_register_6_n47
*586 DP_i_register_6_n46
*587 DP_i_register_6_n45
*588 DP_i_register_6_n44
*589 DP_i_register_6_n43
*590 DP_i_register_6_n42
*591 DP_i_register_6_n41
*592 DP_i_register_6_n40
*593 DP_i_register_7_n75
*594 DP_i_register_7_n74
*595 DP_i_register_7_n73
*596 DP_i_register_7_n72
*597 DP_i_register_7_n71
*598 DP_i_register_7_n70
*599 DP_i_register_7_n69
*600 DP_i_register_7_n68
*601 DP_i_register_7_n67
*602 DP_i_register_7_n66
*603 DP_i_register_7_n65
*604 DP_i_register_7_n64
*605 DP_i_register_7_n63
*606 DP_i_register_7_n62
*607 DP_i_register_7_n61
*608 DP_i_register_7_n60
*609 DP_i_register_7_n59
*610 DP_i_register_7_n58
*611 DP_i_register_7_n57
*612 DP_i_register_7_n56
*613 DP_i_register_7_n55
*614 DP_i_register_7_n54
*615 DP_i_register_7_n53
*616 DP_i_register_7_n52
*617 DP_i_register_7_n51
*618 DP_i_register_7_n50
*619 DP_i_register_7_n49
*620 DP_i_register_7_n48
*621 DP_i_register_7_n47
*622 DP_i_register_7_n46
*623 DP_i_register_7_n45
*624 DP_i_register_7_n44
*625 DP_i_register_7_n43
*626 DP_i_register_7_n42
*627 DP_i_register_7_n41
*628 DP_i_register_7_n40
*629 DP_i_register_8_n75
*630 DP_i_register_8_n74
*631 DP_i_register_8_n73
*632 DP_i_register_8_n72
*633 DP_i_register_8_n71
*634 DP_i_register_8_n70
*635 DP_i_register_8_n69
*636 DP_i_register_8_n68
*637 DP_i_register_8_n67
*638 DP_i_register_8_n66
*639 DP_i_register_8_n65
*640 DP_i_register_8_n64
*641 DP_i_register_8_n63
*642 DP_i_register_8_n62
*643 DP_i_register_8_n61
*644 DP_i_register_8_n60
*645 DP_i_register_8_n59
*646 DP_i_register_8_n58
*647 DP_i_register_8_n57
*648 DP_i_register_8_n56
*649 DP_i_register_8_n55
*650 DP_i_register_8_n54
*651 DP_i_register_8_n53
*652 DP_i_register_8_n52
*653 DP_i_register_8_n51
*654 DP_i_register_8_n50
*655 DP_i_register_8_n49
*656 DP_i_register_8_n48
*657 DP_i_register_8_n47
*658 DP_i_register_8_n46
*659 DP_i_register_8_n45
*660 DP_i_register_8_n44
*661 DP_i_register_8_n43
*662 DP_i_register_8_n42
*663 DP_i_register_8_n41
*664 DP_i_register_8_n40
*665 DP_output_register_n75
*666 DP_output_register_n74
*667 DP_output_register_n73
*668 DP_output_register_n72
*669 DP_output_register_n71
*670 DP_output_register_n70
*671 DP_output_register_n69
*672 DP_output_register_n68
*673 DP_output_register_n67
*674 DP_output_register_n66
*675 DP_output_register_n65
*676 DP_output_register_n64
*677 DP_output_register_n63
*678 DP_output_register_n62
*679 DP_output_register_n61
*680 DP_output_register_n60
*681 DP_output_register_n59
*682 DP_output_register_n58
*683 DP_output_register_n57
*684 DP_output_register_n56
*685 DP_output_register_n55
*686 DP_output_register_n54
*687 DP_output_register_n53
*688 DP_output_register_n52
*689 DP_output_register_n51
*690 DP_output_register_n50
*691 DP_output_register_n49
*692 DP_output_register_n48
*693 DP_output_register_n47
*694 DP_output_register_n46
*695 DP_output_register_n45
*696 DP_output_register_n44
*697 DP_output_register_n43
*698 DP_output_register_n42
*699 DP_output_register_n41
*700 DP_output_register_n40
*701 DP_mult_75_n542
*702 DP_mult_75_n541
*703 DP_mult_75_n540
*704 DP_mult_75_n539
*705 DP_mult_75_n538
*706 DP_mult_75_n537
*707 DP_mult_75_n536
*708 DP_mult_75_n535
*709 DP_mult_75_n534
*710 DP_mult_75_n533
*711 DP_mult_75_n532
*712 DP_mult_75_n531
*713 DP_mult_75_n530
*714 DP_mult_75_n529
*715 DP_mult_75_n528
*716 DP_mult_75_n527
*717 DP_mult_75_n526
*718 DP_mult_75_n525
*719 DP_mult_75_n524
*720 DP_mult_75_n523
*721 DP_mult_75_n522
*722 DP_mult_75_n521
*723 DP_mult_75_n520
*724 DP_mult_75_n519
*725 DP_mult_75_n518
*726 DP_mult_75_n517
*727 DP_mult_75_n516
*728 DP_mult_75_n515
*729 DP_mult_75_n514
*730 DP_mult_75_n513
*731 DP_mult_75_n512
*732 DP_mult_75_n511
*733 DP_mult_75_n510
*734 DP_mult_75_n509
*735 DP_mult_75_n508
*736 DP_mult_75_n507
*737 DP_mult_75_n506
*738 DP_mult_75_n505
*739 DP_mult_75_n504
*740 DP_mult_75_n503
*741 DP_mult_75_n502
*742 DP_mult_75_n501
*743 DP_mult_75_n500
*744 DP_mult_75_n499
*745 DP_mult_75_n498
*746 DP_mult_75_n497
*747 DP_mult_75_n496
*748 DP_mult_75_n495
*749 DP_mult_75_n494
*750 DP_mult_75_n493
*751 DP_mult_75_n492
*752 DP_mult_75_n491
*753 DP_mult_75_n490
*754 DP_mult_75_n489
*755 DP_mult_75_n488
*756 DP_mult_75_n487
*757 DP_mult_75_n486
*758 DP_mult_75_n485
*759 DP_mult_75_n484
*760 DP_mult_75_n483
*761 DP_mult_75_n482
*762 DP_mult_75_n481
*763 DP_mult_75_n480
*764 DP_mult_75_n479
*765 DP_mult_75_n478
*766 DP_mult_75_n477
*767 DP_mult_75_n476
*768 DP_mult_75_n475
*769 DP_mult_75_n474
*770 DP_mult_75_n473
*771 DP_mult_75_n472
*772 DP_mult_75_n471
*773 DP_mult_75_n470
*774 DP_mult_75_n469
*775 DP_mult_75_n468
*776 DP_mult_75_n467
*777 DP_mult_75_n466
*778 DP_mult_75_n465
*779 DP_mult_75_n464
*780 DP_mult_75_n463
*781 DP_mult_75_n462
*782 DP_mult_75_n461
*783 DP_mult_75_n460
*784 DP_mult_75_n459
*785 DP_mult_75_n458
*786 DP_mult_75_n457
*787 DP_mult_75_n456
*788 DP_mult_75_n455
*789 DP_mult_75_n454
*790 DP_mult_75_n453
*791 DP_mult_75_n452
*792 DP_mult_75_n451
*793 DP_mult_75_n450
*794 DP_mult_75_n449
*795 DP_mult_75_n448
*796 DP_mult_75_n447
*797 DP_mult_75_n446
*798 DP_mult_75_n445
*799 DP_mult_75_n444
*800 DP_mult_75_n443
*801 DP_mult_75_n442
*802 DP_mult_75_n441
*803 DP_mult_75_n440
*804 DP_mult_75_n439
*805 DP_mult_75_n438
*806 DP_mult_75_n437
*807 DP_mult_75_n436
*808 DP_mult_75_n435
*809 DP_mult_75_n434
*810 DP_mult_75_n433
*811 DP_mult_75_n432
*812 DP_mult_75_n431
*813 DP_mult_75_n430
*814 DP_mult_75_n429
*815 DP_mult_75_n428
*816 DP_mult_75_n427
*817 DP_mult_75_n426
*818 DP_mult_75_n425
*819 DP_mult_75_n424
*820 DP_mult_75_n423
*821 DP_mult_75_n422
*822 DP_mult_75_n421
*823 DP_mult_75_n420
*824 DP_mult_75_n419
*825 DP_mult_75_n418
*826 DP_mult_75_n417
*827 DP_mult_75_n416
*828 DP_mult_75_n415
*829 DP_mult_75_n414
*830 DP_mult_75_n413
*831 DP_mult_75_n412
*832 DP_mult_75_n411
*833 DP_mult_75_n410
*834 DP_mult_75_n409
*835 DP_mult_75_n408
*836 DP_mult_75_n407
*837 DP_mult_75_n406
*838 DP_mult_75_n405
*839 DP_mult_75_n404
*840 DP_mult_75_n403
*841 DP_mult_75_n402
*842 DP_mult_75_n401
*843 DP_mult_75_n227
*844 DP_mult_75_n226
*845 DP_mult_75_n225
*846 DP_mult_75_n224
*847 DP_mult_75_n223
*848 DP_mult_75_n222
*849 DP_mult_75_n221
*850 DP_mult_75_n220
*851 DP_mult_75_n219
*852 DP_mult_75_n216
*853 DP_mult_75_n215
*854 DP_mult_75_n214
*855 DP_mult_75_n213
*856 DP_mult_75_n212
*857 DP_mult_75_n211
*858 DP_mult_75_n210
*859 DP_mult_75_n209
*860 DP_mult_75_n208
*861 DP_mult_75_n207
*862 DP_mult_75_n205
*863 DP_mult_75_n204
*864 DP_mult_75_n203
*865 DP_mult_75_n202
*866 DP_mult_75_n201
*867 DP_mult_75_n200
*868 DP_mult_75_n199
*869 DP_mult_75_n198
*870 DP_mult_75_n196
*871 DP_mult_75_n195
*872 DP_mult_75_n193
*873 DP_mult_75_n192
*874 DP_mult_75_n191
*875 DP_mult_75_n190
*876 DP_mult_75_n189
*877 DP_mult_75_n188
*878 DP_mult_75_n187
*879 DP_mult_75_n186
*880 DP_mult_75_n185
*881 DP_mult_75_n184
*882 DP_mult_75_n183
*883 DP_mult_75_n181
*884 DP_mult_75_n180
*885 DP_mult_75_n179
*886 DP_mult_75_n178
*887 DP_mult_75_n176
*888 DP_mult_75_n175
*889 DP_mult_75_n174
*890 DP_mult_75_n173
*891 DP_mult_75_n172
*892 DP_mult_75_n171
*893 DP_mult_75_n169
*894 DP_mult_75_n168
*895 DP_mult_75_n167
*896 DP_mult_75_n166
*897 DP_mult_75_n165
*898 DP_mult_75_n164
*899 DP_mult_75_n163
*900 DP_mult_75_n162
*901 DP_mult_75_n161
*902 DP_mult_75_n160
*903 DP_mult_75_n159
*904 DP_mult_75_n155
*905 DP_mult_75_n154
*906 DP_mult_75_n153
*907 DP_mult_75_n152
*908 DP_mult_75_n134
*909 DP_mult_75_n133
*910 DP_mult_75_n132
*911 DP_mult_75_n131
*912 DP_mult_75_n130
*913 DP_mult_75_n129
*914 DP_mult_75_n128
*915 DP_mult_75_n127
*916 DP_mult_75_n126
*917 DP_mult_75_n125
*918 DP_mult_75_n124
*919 DP_mult_75_n123
*920 DP_mult_75_n122
*921 DP_mult_75_n121
*922 DP_mult_75_n120
*923 DP_mult_75_n119
*924 DP_mult_75_n118
*925 DP_mult_75_n117
*926 DP_mult_75_n116
*927 DP_mult_75_n115
*928 DP_mult_75_n114
*929 DP_mult_75_n113
*930 DP_mult_75_n112
*931 DP_mult_75_n111
*932 DP_mult_75_n110
*933 DP_mult_75_n109
*934 DP_mult_75_n108
*935 DP_mult_75_n107
*936 DP_mult_75_n106
*937 DP_mult_75_n105
*938 DP_mult_75_n104
*939 DP_mult_75_n103
*940 DP_mult_75_n102
*941 DP_mult_75_n101
*942 DP_mult_75_n100
*943 DP_mult_75_n99
*944 DP_mult_75_n98
*945 DP_mult_75_n97
*946 DP_mult_75_n96
*947 DP_mult_75_n95
*948 DP_mult_75_n94
*949 DP_mult_75_n93
*950 DP_mult_75_n92
*951 DP_mult_75_n91
*952 DP_mult_75_n90
*953 DP_mult_75_n89
*954 DP_mult_75_n88
*955 DP_mult_75_n87
*956 DP_mult_75_n86
*957 DP_mult_75_n85
*958 DP_mult_75_n84
*959 DP_mult_75_n83
*960 DP_mult_75_n82
*961 DP_mult_75_n81
*962 DP_mult_75_n80
*963 DP_mult_75_n79
*964 DP_mult_75_n78
*965 DP_mult_75_n77
*966 DP_mult_75_n76
*967 DP_mult_75_n75
*968 DP_mult_75_n73
*969 DP_mult_75_n72
*970 DP_mult_75_n71
*971 DP_mult_75_n70
*972 DP_mult_75_n69
*973 DP_mult_75_n68
*974 DP_mult_75_n67
*975 DP_mult_75_n66
*976 DP_mult_75_n65
*977 DP_mult_75_n64
*978 DP_mult_75_n63
*979 DP_mult_75_n62
*980 DP_mult_75_n61
*981 DP_mult_75_n60
*982 DP_mult_75_n59
*983 DP_mult_75_n58
*984 DP_mult_75_n57
*985 DP_mult_75_n55
*986 DP_mult_75_n54
*987 DP_mult_75_n53
*988 DP_mult_75_n52
*989 DP_mult_75_n51
*990 DP_mult_75_n50
*991 DP_mult_75_n49
*992 DP_mult_75_n48
*993 DP_mult_75_n47
*994 DP_mult_75_n46
*995 DP_mult_75_n45
*996 DP_mult_75_n44
*997 DP_mult_75_n43
*998 DP_mult_75_n41
*999 DP_mult_75_n40
*1000 DP_mult_75_n39
*1001 DP_mult_75_n38
*1002 DP_mult_75_n37
*1003 DP_mult_75_n36
*1004 DP_mult_75_n35
*1005 DP_mult_75_n34
*1006 DP_mult_75_n33
*1007 DP_mult_75_n31
*1008 DP_mult_75_n30
*1009 DP_mult_75_n29
*1010 DP_mult_75_n28
*1011 DP_mult_75_n27
*1012 DP_mult_75_n26
*1013 DP_mult_75_n15
*1014 DP_mult_75_n14
*1015 DP_mult_75_n13
*1016 DP_mult_75_n12
*1017 DP_mult_75_n11
*1018 DP_mult_75_n10
*1019 DP_mult_75_n9
*1020 DP_mult_75_n8
*1021 DP_mult_75_n7
*1022 DP_mult_75_n6
*1023 DP_mult_75_n5
*1024 DP_mult_75_n4
*1025 DP_mult_75_G2_n542
*1026 DP_mult_75_G2_n541
*1027 DP_mult_75_G2_n540
*1028 DP_mult_75_G2_n539
*1029 DP_mult_75_G2_n538
*1030 DP_mult_75_G2_n537
*1031 DP_mult_75_G2_n536
*1032 DP_mult_75_G2_n535
*1033 DP_mult_75_G2_n534
*1034 DP_mult_75_G2_n533
*1035 DP_mult_75_G2_n532
*1036 DP_mult_75_G2_n531
*1037 DP_mult_75_G2_n530
*1038 DP_mult_75_G2_n529
*1039 DP_mult_75_G2_n528
*1040 DP_mult_75_G2_n527
*1041 DP_mult_75_G2_n526
*1042 DP_mult_75_G2_n525
*1043 DP_mult_75_G2_n524
*1044 DP_mult_75_G2_n523
*1045 DP_mult_75_G2_n522
*1046 DP_mult_75_G2_n521
*1047 DP_mult_75_G2_n520
*1048 DP_mult_75_G2_n519
*1049 DP_mult_75_G2_n518
*1050 DP_mult_75_G2_n517
*1051 DP_mult_75_G2_n516
*1052 DP_mult_75_G2_n515
*1053 DP_mult_75_G2_n514
*1054 DP_mult_75_G2_n513
*1055 DP_mult_75_G2_n512
*1056 DP_mult_75_G2_n511
*1057 DP_mult_75_G2_n510
*1058 DP_mult_75_G2_n509
*1059 DP_mult_75_G2_n508
*1060 DP_mult_75_G2_n507
*1061 DP_mult_75_G2_n506
*1062 DP_mult_75_G2_n505
*1063 DP_mult_75_G2_n504
*1064 DP_mult_75_G2_n503
*1065 DP_mult_75_G2_n502
*1066 DP_mult_75_G2_n501
*1067 DP_mult_75_G2_n500
*1068 DP_mult_75_G2_n499
*1069 DP_mult_75_G2_n498
*1070 DP_mult_75_G2_n497
*1071 DP_mult_75_G2_n496
*1072 DP_mult_75_G2_n495
*1073 DP_mult_75_G2_n494
*1074 DP_mult_75_G2_n493
*1075 DP_mult_75_G2_n492
*1076 DP_mult_75_G2_n491
*1077 DP_mult_75_G2_n490
*1078 DP_mult_75_G2_n489
*1079 DP_mult_75_G2_n488
*1080 DP_mult_75_G2_n487
*1081 DP_mult_75_G2_n486
*1082 DP_mult_75_G2_n485
*1083 DP_mult_75_G2_n484
*1084 DP_mult_75_G2_n483
*1085 DP_mult_75_G2_n482
*1086 DP_mult_75_G2_n481
*1087 DP_mult_75_G2_n480
*1088 DP_mult_75_G2_n479
*1089 DP_mult_75_G2_n478
*1090 DP_mult_75_G2_n477
*1091 DP_mult_75_G2_n476
*1092 DP_mult_75_G2_n475
*1093 DP_mult_75_G2_n474
*1094 DP_mult_75_G2_n473
*1095 DP_mult_75_G2_n472
*1096 DP_mult_75_G2_n471
*1097 DP_mult_75_G2_n470
*1098 DP_mult_75_G2_n469
*1099 DP_mult_75_G2_n468
*1100 DP_mult_75_G2_n467
*1101 DP_mult_75_G2_n466
*1102 DP_mult_75_G2_n465
*1103 DP_mult_75_G2_n464
*1104 DP_mult_75_G2_n463
*1105 DP_mult_75_G2_n462
*1106 DP_mult_75_G2_n461
*1107 DP_mult_75_G2_n460
*1108 DP_mult_75_G2_n459
*1109 DP_mult_75_G2_n458
*1110 DP_mult_75_G2_n457
*1111 DP_mult_75_G2_n456
*1112 DP_mult_75_G2_n455
*1113 DP_mult_75_G2_n454
*1114 DP_mult_75_G2_n453
*1115 DP_mult_75_G2_n452
*1116 DP_mult_75_G2_n451
*1117 DP_mult_75_G2_n450
*1118 DP_mult_75_G2_n449
*1119 DP_mult_75_G2_n448
*1120 DP_mult_75_G2_n447
*1121 DP_mult_75_G2_n446
*1122 DP_mult_75_G2_n445
*1123 DP_mult_75_G2_n444
*1124 DP_mult_75_G2_n443
*1125 DP_mult_75_G2_n442
*1126 DP_mult_75_G2_n441
*1127 DP_mult_75_G2_n440
*1128 DP_mult_75_G2_n439
*1129 DP_mult_75_G2_n438
*1130 DP_mult_75_G2_n437
*1131 DP_mult_75_G2_n436
*1132 DP_mult_75_G2_n435
*1133 DP_mult_75_G2_n434
*1134 DP_mult_75_G2_n433
*1135 DP_mult_75_G2_n432
*1136 DP_mult_75_G2_n431
*1137 DP_mult_75_G2_n430
*1138 DP_mult_75_G2_n429
*1139 DP_mult_75_G2_n428
*1140 DP_mult_75_G2_n427
*1141 DP_mult_75_G2_n426
*1142 DP_mult_75_G2_n425
*1143 DP_mult_75_G2_n424
*1144 DP_mult_75_G2_n423
*1145 DP_mult_75_G2_n422
*1146 DP_mult_75_G2_n421
*1147 DP_mult_75_G2_n420
*1148 DP_mult_75_G2_n419
*1149 DP_mult_75_G2_n418
*1150 DP_mult_75_G2_n417
*1151 DP_mult_75_G2_n416
*1152 DP_mult_75_G2_n415
*1153 DP_mult_75_G2_n414
*1154 DP_mult_75_G2_n413
*1155 DP_mult_75_G2_n412
*1156 DP_mult_75_G2_n411
*1157 DP_mult_75_G2_n410
*1158 DP_mult_75_G2_n409
*1159 DP_mult_75_G2_n408
*1160 DP_mult_75_G2_n407
*1161 DP_mult_75_G2_n406
*1162 DP_mult_75_G2_n405
*1163 DP_mult_75_G2_n404
*1164 DP_mult_75_G2_n403
*1165 DP_mult_75_G2_n402
*1166 DP_mult_75_G2_n401
*1167 DP_mult_75_G2_n227
*1168 DP_mult_75_G2_n226
*1169 DP_mult_75_G2_n225
*1170 DP_mult_75_G2_n224
*1171 DP_mult_75_G2_n223
*1172 DP_mult_75_G2_n222
*1173 DP_mult_75_G2_n221
*1174 DP_mult_75_G2_n220
*1175 DP_mult_75_G2_n219
*1176 DP_mult_75_G2_n216
*1177 DP_mult_75_G2_n215
*1178 DP_mult_75_G2_n214
*1179 DP_mult_75_G2_n213
*1180 DP_mult_75_G2_n212
*1181 DP_mult_75_G2_n211
*1182 DP_mult_75_G2_n210
*1183 DP_mult_75_G2_n209
*1184 DP_mult_75_G2_n208
*1185 DP_mult_75_G2_n207
*1186 DP_mult_75_G2_n205
*1187 DP_mult_75_G2_n204
*1188 DP_mult_75_G2_n203
*1189 DP_mult_75_G2_n202
*1190 DP_mult_75_G2_n201
*1191 DP_mult_75_G2_n200
*1192 DP_mult_75_G2_n199
*1193 DP_mult_75_G2_n198
*1194 DP_mult_75_G2_n196
*1195 DP_mult_75_G2_n195
*1196 DP_mult_75_G2_n193
*1197 DP_mult_75_G2_n192
*1198 DP_mult_75_G2_n191
*1199 DP_mult_75_G2_n190
*1200 DP_mult_75_G2_n189
*1201 DP_mult_75_G2_n188
*1202 DP_mult_75_G2_n187
*1203 DP_mult_75_G2_n186
*1204 DP_mult_75_G2_n185
*1205 DP_mult_75_G2_n184
*1206 DP_mult_75_G2_n183
*1207 DP_mult_75_G2_n181
*1208 DP_mult_75_G2_n180
*1209 DP_mult_75_G2_n179
*1210 DP_mult_75_G2_n178
*1211 DP_mult_75_G2_n176
*1212 DP_mult_75_G2_n175
*1213 DP_mult_75_G2_n174
*1214 DP_mult_75_G2_n173
*1215 DP_mult_75_G2_n172
*1216 DP_mult_75_G2_n171
*1217 DP_mult_75_G2_n169
*1218 DP_mult_75_G2_n168
*1219 DP_mult_75_G2_n167
*1220 DP_mult_75_G2_n166
*1221 DP_mult_75_G2_n165
*1222 DP_mult_75_G2_n164
*1223 DP_mult_75_G2_n163
*1224 DP_mult_75_G2_n162
*1225 DP_mult_75_G2_n161
*1226 DP_mult_75_G2_n160
*1227 DP_mult_75_G2_n159
*1228 DP_mult_75_G2_n155
*1229 DP_mult_75_G2_n154
*1230 DP_mult_75_G2_n153
*1231 DP_mult_75_G2_n152
*1232 DP_mult_75_G2_n134
*1233 DP_mult_75_G2_n133
*1234 DP_mult_75_G2_n132
*1235 DP_mult_75_G2_n131
*1236 DP_mult_75_G2_n130
*1237 DP_mult_75_G2_n129
*1238 DP_mult_75_G2_n128
*1239 DP_mult_75_G2_n127
*1240 DP_mult_75_G2_n126
*1241 DP_mult_75_G2_n125
*1242 DP_mult_75_G2_n124
*1243 DP_mult_75_G2_n123
*1244 DP_mult_75_G2_n122
*1245 DP_mult_75_G2_n121
*1246 DP_mult_75_G2_n120
*1247 DP_mult_75_G2_n119
*1248 DP_mult_75_G2_n118
*1249 DP_mult_75_G2_n117
*1250 DP_mult_75_G2_n116
*1251 DP_mult_75_G2_n115
*1252 DP_mult_75_G2_n114
*1253 DP_mult_75_G2_n113
*1254 DP_mult_75_G2_n112
*1255 DP_mult_75_G2_n111
*1256 DP_mult_75_G2_n110
*1257 DP_mult_75_G2_n109
*1258 DP_mult_75_G2_n108
*1259 DP_mult_75_G2_n107
*1260 DP_mult_75_G2_n106
*1261 DP_mult_75_G2_n105
*1262 DP_mult_75_G2_n104
*1263 DP_mult_75_G2_n103
*1264 DP_mult_75_G2_n102
*1265 DP_mult_75_G2_n101
*1266 DP_mult_75_G2_n100
*1267 DP_mult_75_G2_n99
*1268 DP_mult_75_G2_n98
*1269 DP_mult_75_G2_n97
*1270 DP_mult_75_G2_n96
*1271 DP_mult_75_G2_n95
*1272 DP_mult_75_G2_n94
*1273 DP_mult_75_G2_n93
*1274 DP_mult_75_G2_n92
*1275 DP_mult_75_G2_n91
*1276 DP_mult_75_G2_n90
*1277 DP_mult_75_G2_n89
*1278 DP_mult_75_G2_n88
*1279 DP_mult_75_G2_n87
*1280 DP_mult_75_G2_n86
*1281 DP_mult_75_G2_n85
*1282 DP_mult_75_G2_n84
*1283 DP_mult_75_G2_n83
*1284 DP_mult_75_G2_n82
*1285 DP_mult_75_G2_n81
*1286 DP_mult_75_G2_n80
*1287 DP_mult_75_G2_n79
*1288 DP_mult_75_G2_n78
*1289 DP_mult_75_G2_n77
*1290 DP_mult_75_G2_n76
*1291 DP_mult_75_G2_n75
*1292 DP_mult_75_G2_n73
*1293 DP_mult_75_G2_n72
*1294 DP_mult_75_G2_n71
*1295 DP_mult_75_G2_n70
*1296 DP_mult_75_G2_n69
*1297 DP_mult_75_G2_n68
*1298 DP_mult_75_G2_n67
*1299 DP_mult_75_G2_n66
*1300 DP_mult_75_G2_n65
*1301 DP_mult_75_G2_n64
*1302 DP_mult_75_G2_n63
*1303 DP_mult_75_G2_n62
*1304 DP_mult_75_G2_n61
*1305 DP_mult_75_G2_n60
*1306 DP_mult_75_G2_n59
*1307 DP_mult_75_G2_n58
*1308 DP_mult_75_G2_n57
*1309 DP_mult_75_G2_n55
*1310 DP_mult_75_G2_n54
*1311 DP_mult_75_G2_n53
*1312 DP_mult_75_G2_n52
*1313 DP_mult_75_G2_n51
*1314 DP_mult_75_G2_n50
*1315 DP_mult_75_G2_n49
*1316 DP_mult_75_G2_n48
*1317 DP_mult_75_G2_n47
*1318 DP_mult_75_G2_n46
*1319 DP_mult_75_G2_n45
*1320 DP_mult_75_G2_n44
*1321 DP_mult_75_G2_n43
*1322 DP_mult_75_G2_n41
*1323 DP_mult_75_G2_n40
*1324 DP_mult_75_G2_n39
*1325 DP_mult_75_G2_n38
*1326 DP_mult_75_G2_n37
*1327 DP_mult_75_G2_n36
*1328 DP_mult_75_G2_n35
*1329 DP_mult_75_G2_n34
*1330 DP_mult_75_G2_n33
*1331 DP_mult_75_G2_n31
*1332 DP_mult_75_G2_n30
*1333 DP_mult_75_G2_n29
*1334 DP_mult_75_G2_n28
*1335 DP_mult_75_G2_n27
*1336 DP_mult_75_G2_n26
*1337 DP_mult_75_G2_n15
*1338 DP_mult_75_G2_n14
*1339 DP_mult_75_G2_n13
*1340 DP_mult_75_G2_n12
*1341 DP_mult_75_G2_n11
*1342 DP_mult_75_G2_n10
*1343 DP_mult_75_G2_n9
*1344 DP_mult_75_G2_n8
*1345 DP_mult_75_G2_n7
*1346 DP_mult_75_G2_n6
*1347 DP_mult_75_G2_n5
*1348 DP_mult_75_G2_n4
*1349 DP_mult_75_G3_n542
*1350 DP_mult_75_G3_n541
*1351 DP_mult_75_G3_n540
*1352 DP_mult_75_G3_n539
*1353 DP_mult_75_G3_n538
*1354 DP_mult_75_G3_n537
*1355 DP_mult_75_G3_n536
*1356 DP_mult_75_G3_n535
*1357 DP_mult_75_G3_n534
*1358 DP_mult_75_G3_n533
*1359 DP_mult_75_G3_n532
*1360 DP_mult_75_G3_n531
*1361 DP_mult_75_G3_n530
*1362 DP_mult_75_G3_n529